Version 4
SHEET 1 880 680
WIRE 64 64 0 64
WIRE 224 64 160 64
WIRE 384 64 320 64
WIRE 512 128 432 128
WIRE 176 160 176 80
WIRE 416 160 416 96
WIRE 144 240 144 224
WIRE 240 240 144 240
WIRE 384 240 384 224
WIRE 384 240 288 240
WIRE 240 256 240 240
WIRE 288 256 288 240
WIRE 512 320 512 128
WIRE 272 352 272 320
WIRE -64 480 -64 96
WIRE 176 480 -64 480
WIRE 320 480 320 400
WIRE 320 480 272 480
WIRE -80 528 -80 96
WIRE 512 528 512 368
WIRE 512 528 -80 528
RECTANGLE Normal -96 32 0 96
RECTANGLE Normal 64 32 160 96
RECTANGLE Normal 224 32 320 96
RECTANGLE Normal 176 448 272 512
RECTANGLE Normal 216 256 312 320
RECTANGLE Normal 224 352 336 400
RECTANGLE Normal 96 160 224 224
RECTANGLE Normal 316 160 432 224
RECTANGLE Normal 384 32 496 96
RECTANGLE Normal 464 320 576 368
