Version 4
SHEET 1 932 680
WIRE 368 80 240 80
WIRE 496 80 416 80
WIRE 672 80 624 80
WIRE 832 80 784 80
WIRE 128 128 128 112
WIRE 176 128 128 128
WIRE 832 144 832 80
WIRE 240 160 240 80
WIRE 240 160 176 160
WIRE 176 192 128 192
WIRE 128 208 128 192
WIRE 240 240 240 160
WIRE 368 240 240 240
WIRE 496 240 416 240
WIRE 672 240 624 240
WIRE 832 240 832 192
WIRE 832 240 784 240
TEXT 536 80 Left 2 ;LPF
TEXT 536 240 Left 2 ;LPF
TEXT 704 80 Left 2 ;ADC
TEXT 704 248 Left 2 ;ADC
TEXT 768 168 Left 2 ;Raspberry PI
TEXT 104 96 Left 2 ;Vosc
TEXT 128 224 Left 2 ;Vo
TEXT 360 24 Left 2 ;Cos(wt)
TEXT 360 304 Left 2 ;Sin(wt)
LINE Normal 384 224 404 248
LINE Normal 384 248 404 224
LINE Normal 384 68 404 92
LINE Normal 384 92 404 68
RECTANGLE Normal 496 48 624 112
RECTANGLE Normal 496 208 624 272
RECTANGLE Normal 672 48 784 112
RECTANGLE Normal 672 208 784 276
CIRCLE Normal 420 260 368 212 2
CIRCLE Normal 420 260 368 212 2
CIRCLE Normal 420 104 368 56 2
CIRCLE Normal 420 104 368 56 2
