Version 4
SHEET 1 2252 1484
WIRE 32 -1328 -32 -1328
WIRE 32 -1232 32 -1328
WIRE 32 -1232 16 -1232
WIRE 16 -1216 16 -1232
WIRE 112 -1200 96 -1200
WIRE 96 -1184 96 -1200
WIRE 96 -1184 -32 -1184
WIRE 1152 -1152 400 -1152
WIRE 112 -1104 112 -1200
WIRE 16 -1072 16 -1104
WIRE 16 -1056 16 -1072
WIRE 48 -1056 16 -1056
WIRE 400 -1056 400 -1152
WIRE 480 -1056 400 -1056
WIRE 608 -1040 544 -1040
WIRE 608 -1008 608 -1040
WIRE 640 -1008 640 -1024
WIRE 640 -1008 608 -1008
WIRE 864 -1008 704 -1008
WIRE 640 -992 624 -992
WIRE 480 -960 384 -960
WIRE 624 -944 624 -992
WIRE 624 -944 544 -944
WIRE 864 -896 864 -1008
WIRE 928 -896 864 -896
WIRE 528 -848 80 -848
WIRE 928 -848 848 -848
WIRE 1152 -848 1152 -1152
WIRE 1152 -848 1104 -848
WIRE 1424 -832 1392 -832
WIRE 576 -816 496 -816
WIRE 0 -800 -176 -800
WIRE 144 -800 64 -800
WIRE 576 -800 560 -800
WIRE 640 -800 624 -800
WIRE 672 -800 640 -800
WIRE 736 -800 672 -800
WIRE 144 -784 112 -784
WIRE 288 -784 208 -784
WIRE 432 -784 352 -784
WIRE 496 -784 496 -816
WIRE 528 -784 528 -848
WIRE 576 -784 528 -784
WIRE 848 -784 848 -848
WIRE 1008 -784 1008 -800
WIRE 80 -768 80 -848
WIRE 144 -768 80 -768
WIRE 288 -768 256 -768
WIRE 432 -768 384 -768
WIRE 560 -752 560 -800
WIRE 560 -752 496 -752
WIRE 256 -720 256 -768
WIRE 320 -720 256 -720
WIRE -80 -704 -80 -736
WIRE -80 -704 -96 -704
WIRE 1376 -704 1376 -752
WIRE 1376 -704 1360 -704
WIRE -176 -688 -176 -800
WIRE -128 -688 -176 -688
WIRE 352 -688 352 -784
WIRE 352 -688 256 -688
WIRE 576 -688 576 -784
WIRE 704 -688 576 -688
WIRE 1312 -688 1312 -832
WIRE 1312 -688 1264 -688
WIRE 1328 -688 1312 -688
WIRE 0 -672 0 -800
WIRE 1184 -672 1184 -688
WIRE 1392 -672 1376 -672
WIRE 1424 -672 1424 -832
WIRE 1424 -672 1392 -672
WIRE -176 -656 -192 -656
WIRE -128 -656 -176 -656
WIRE 320 -656 320 -720
WIRE 352 -656 320 -656
WIRE 576 -656 560 -656
WIRE 672 -656 672 -800
WIRE 672 -656 576 -656
WIRE 1280 -656 1216 -656
WIRE 1328 -656 1280 -656
WIRE 608 -624 528 -624
WIRE 912 -624 880 -624
WIRE 1360 -624 1360 -640
WIRE -176 -608 -176 -656
WIRE -176 -608 -224 -608
WIRE -96 -608 -96 -640
WIRE 112 -608 112 -784
WIRE 144 -608 112 -608
WIRE 256 -608 256 -688
WIRE 288 -608 256 -608
WIRE 352 -608 352 -656
WIRE 384 -608 384 -768
WIRE 432 -608 384 -608
WIRE 704 -608 704 -688
WIRE 704 -608 672 -608
WIRE 736 -608 704 -608
WIRE 880 -608 880 -624
WIRE 976 -608 976 -640
WIRE 976 -608 960 -608
WIRE 1360 -608 1360 -624
WIRE 144 -592 80 -592
WIRE 288 -592 208 -592
WIRE 352 -592 352 -608
WIRE 432 -592 352 -592
WIRE 528 -592 528 -624
WIRE 528 -592 496 -592
WIRE 576 -592 576 -656
WIRE 576 -592 560 -592
WIRE 608 -592 576 -592
WIRE 912 -592 912 -624
WIRE 928 -592 912 -592
WIRE 1280 -592 1280 -656
WIRE 0 -576 0 -672
WIRE 16 -576 0 -576
WIRE 144 -576 64 -576
WIRE 1024 -576 992 -576
WIRE 1056 -576 1024 -576
WIRE 64 -560 64 -576
WIRE 928 -560 864 -560
WIRE 1216 -560 1216 -656
WIRE -224 -544 -224 -608
WIRE -192 -544 -224 -544
WIRE -96 -544 -112 -544
WIRE -64 -544 -96 -544
WIRE 16 -544 16 -576
WIRE 80 -512 80 -592
WIRE 576 -512 576 -592
WIRE 576 -512 80 -512
WIRE 960 -512 960 -544
WIRE 576 -496 576 -512
WIRE 176 -480 80 -480
WIRE 384 -480 384 -608
WIRE 384 -480 240 -480
WIRE 1056 -464 1056 -496
WIRE 1216 -464 1216 -480
WIRE 1216 -464 1056 -464
WIRE 1056 -448 1056 -464
WIRE -96 -432 -96 -544
WIRE -96 -432 -144 -432
WIRE -64 -400 -64 -432
WIRE -64 -400 -80 -400
WIRE -144 -384 -144 -432
WIRE -112 -384 -144 -384
WIRE 16 -368 16 -544
WIRE 128 -368 16 -368
WIRE -112 -352 -144 -352
WIRE 128 -352 128 -368
WIRE 240 -352 128 -352
WIRE 1056 -352 1056 -368
WIRE 1280 -352 1280 -432
WIRE 1280 -352 1056 -352
WIRE 16 -336 16 -368
WIRE 128 -336 128 -352
WIRE 240 -336 240 -352
WIRE 560 -320 496 -320
WIRE 656 -320 640 -320
WIRE 784 -320 704 -320
WIRE 896 -320 864 -320
WIRE -80 -304 -80 -336
WIRE 1472 -272 1440 -272
WIRE 16 -240 16 -256
WIRE 128 -240 128 -256
WIRE 128 -240 16 -240
WIRE 240 -240 240 -272
WIRE 240 -240 128 -240
WIRE 608 -240 560 -240
WIRE -80 -224 -256 -224
WIRE 560 -208 560 -240
WIRE 704 -176 704 -320
WIRE 704 -176 688 -176
WIRE 784 -176 704 -176
WIRE 1424 -144 1424 -192
WIRE 1424 -144 1408 -144
WIRE -160 -128 -160 -160
WIRE -160 -128 -176 -128
WIRE 1360 -128 1360 -272
WIRE 1360 -128 1312 -128
WIRE 1376 -128 1360 -128
WIRE -256 -112 -256 -224
WIRE -208 -112 -256 -112
WIRE 656 -112 656 -320
WIRE 672 -112 656 -112
WIRE 1232 -112 1232 -128
WIRE 1440 -112 1424 -112
WIRE 1472 -112 1472 -272
WIRE 1472 -112 1440 -112
WIRE -80 -96 -80 -224
WIRE 560 -96 560 -128
WIRE 1328 -96 1264 -96
WIRE 1376 -96 1328 -96
WIRE -256 -80 -272 -80
WIRE -208 -80 -256 -80
WIRE 608 -80 608 -240
WIRE 848 -64 848 -96
WIRE 848 -64 832 -64
WIRE 992 -64 960 -64
WIRE 1408 -64 1408 -80
WIRE 608 -48 608 -80
WIRE 672 -48 672 -112
WIRE 704 -48 672 -48
WIRE 784 -48 784 -176
WIRE 800 -48 784 -48
WIRE 960 -48 960 -64
WIRE 1056 -48 1056 -96
WIRE 1056 -48 1040 -48
WIRE 1408 -48 1408 -64
WIRE -256 -32 -256 -80
WIRE -256 -32 -304 -32
WIRE -176 -32 -176 -64
WIRE 416 -32 336 -32
WIRE 496 -32 496 -320
WIRE 496 -32 480 -32
WIRE 576 -32 496 -32
WIRE 896 -32 896 -320
WIRE 896 -32 864 -32
WIRE 928 -32 896 -32
WIRE 992 -32 992 -64
WIRE 1008 -32 992 -32
WIRE 1328 -32 1328 -96
WIRE 672 -16 672 -48
WIRE 672 -16 640 -16
WIRE 800 -16 752 -16
WIRE 1104 -16 1072 -16
WIRE -80 0 -80 -96
WIRE -64 0 -80 0
WIRE 576 0 544 0
WIRE 928 0 928 -32
WIRE 1008 0 928 0
WIRE 1264 0 1264 -96
WIRE 496 16 496 -32
WIRE 832 16 832 0
WIRE -304 32 -304 -32
WIRE -272 32 -304 32
WIRE -176 32 -192 32
WIRE -144 32 -176 32
WIRE -64 32 -64 0
WIRE 832 32 832 16
WIRE 1040 32 1040 16
WIRE 608 48 608 16
WIRE 1040 48 1040 32
WIRE 608 64 608 48
WIRE 496 80 384 80
WIRE 1104 96 1104 64
WIRE 1264 96 1264 80
WIRE 1264 96 1104 96
WIRE 336 112 336 -32
WIRE 1104 112 1104 96
WIRE -176 144 -176 32
WIRE -176 144 -224 144
WIRE -144 176 -144 144
WIRE -144 176 -160 176
WIRE -224 192 -224 144
WIRE -192 192 -224 192
WIRE -64 208 -64 32
WIRE 48 208 -64 208
WIRE 336 208 336 192
WIRE 544 208 544 0
WIRE 544 208 336 208
WIRE 608 208 608 144
WIRE 608 208 544 208
WIRE 752 208 752 -16
WIRE 752 208 608 208
WIRE 1104 208 1104 192
WIRE 1104 208 752 208
WIRE 1328 208 1328 128
WIRE 1328 208 1104 208
WIRE -192 224 -224 224
WIRE 48 224 48 208
WIRE 160 224 48 224
WIRE 336 224 336 208
WIRE -64 240 -64 208
WIRE 48 240 48 224
WIRE 160 240 160 224
WIRE -160 272 -160 240
WIRE -64 336 -64 320
WIRE 48 336 48 320
WIRE 48 336 -64 336
WIRE 160 336 160 304
WIRE 160 336 48 336
FLAG 336 224 0
FLAG 656 -320 out
FLAG 336 -32 in
FLAG 560 -96 0
FLAG 880 -608 0
FLAG 1024 -576 cs
FLAG 864 -560 in
FLAG 960 -48 0
FLAG 1104 -16 co
FLAG 608 -80 +15
FLAG 848 -96 +15
FLAG 1056 -96 +15
FLAG 976 -640 +15
FLAG 608 48 -15
FLAG 832 16 -15
FLAG 1040 32 -15
FLAG 960 -512 -15
FLAG 1104 96 ro
FLAG 1232 -112 0
FLAG 1424 -192 +15
FLAG 1408 -64 -15
FLAG 1472 -112 oo
FLAG 1056 -464 rs
FLAG 1184 -672 0
FLAG 1376 -752 +15
FLAG 1360 -624 -15
FLAG 1424 -672 ss
FLAG 752 208 G
FLAG 1280 -352 G
FLAG -272 -80 in
FLAG -160 -160 +15
FLAG -176 -32 -15
FLAG -144 144 +15
FLAG -160 272 -15
FLAG -224 224 G
FLAG 48 336 G
FLAG -192 -656 out
FLAG -80 -736 +15
FLAG -96 -608 -15
FLAG -64 -432 +15
FLAG -80 -304 -15
FLAG -144 -352 G
FLAG 128 -240 G
FLAG 1088 -896 Q
FLAG 480 -928 Q
FLAG 848 -704 G
FLAG 1008 -944 G
FLAG 1008 -704 G
FLAG -32 -1248 G
FLAG 48 -976 G
FLAG -32 -1104 G
FLAG 80 -480 clk
FLAG 16 -1072 K
FLAG 16 -1216 J
FLAG 112 -1104 clk
FLAG 64 -800 J
FLAG 64 -560 K
FLAG 496 -672 G
SYMBOL voltage 336 96 R0
WINDOW 0 24 16 Left 0
WINDOW 3 24 96 Left 0
WINDOW 123 0 0 Left 0
WINDOW 39 0 0 Left 0
SYMATTR InstName V1
SYMATTR Value SINE(0 2.5 50000)
SYMBOL res 512 -48 R90
WINDOW 0 0 56 VBottom 0
WINDOW 3 32 56 VTop 0
SYMATTR InstName R4
SYMATTR Value 10k
SYMBOL res 656 -336 R90
WINDOW 0 0 56 VBottom 0
WINDOW 3 32 56 VTop 0
SYMATTR InstName R1
SYMATTR Value 10K
SYMBOL voltage 608 48 R0
WINDOW 0 24 16 Left 0
WINDOW 3 24 96 Left 0
WINDOW 123 0 0 Left 0
WINDOW 39 0 0 Left 0
SYMATTR InstName V2
SYMATTR Value -15
SYMBOL voltage 560 -224 R0
WINDOW 0 24 16 Left 0
WINDOW 3 24 96 Left 0
WINDOW 123 0 0 Left 0
WINDOW 39 0 0 Left 0
SYMATTR InstName V3
SYMATTR Value 15
SYMBOL cap 480 16 R0
WINDOW 0 24 8 Left 0
WINDOW 3 24 56 Left 0
SYMATTR InstName C1
SYMATTR Value 1nF
SYMBOL Opamps\\opamp2 608 -80 R0
WINDOW 0 16 32 Left 0
WINDOW 3 16 96 Left 0
SYMATTR InstName U1
SYMATTR Value TL084
SYMBOL Opamps\\opamp2 1040 -80 R0
WINDOW 0 16 32 Left 0
WINDOW 3 16 96 Left 0
SYMATTR InstName U2
SYMATTR Value TL084
SYMBOL Opamps\\opamp2 960 -640 R0
WINDOW 0 16 32 Left 0
WINDOW 3 16 96 Left 0
SYMATTR InstName U3
SYMATTR Value TL084
SYMBOL Opamps\\opamp2 832 -96 R0
WINDOW 0 16 32 Left 0
WINDOW 3 16 96 Left 0
SYMATTR InstName U5
SYMATTR Value TL084
SYMBOL res 800 -64 R90
WINDOW 0 0 56 VBottom 0
WINDOW 3 32 56 VTop 0
SYMATTR InstName R2
SYMATTR Value 10K
SYMBOL res 880 -336 R90
WINDOW 0 0 56 VBottom 0
WINDOW 3 32 56 VTop 0
SYMATTR InstName R5
SYMATTR Value 10K
SYMBOL res 1088 -32 R0
WINDOW 0 36 40 Left 0
WINDOW 3 36 76 Left 0
SYMATTR InstName R3
SYMATTR Value 5k
SYMBOL res 1088 96 R0
WINDOW 0 36 40 Left 0
WINDOW 3 36 76 Left 0
SYMATTR InstName R6
SYMATTR Value 1k
SYMBOL res 1328 -144 R90
WINDOW 0 0 56 VBottom 0
WINDOW 3 32 56 VTop 0
SYMATTR InstName R8
SYMATTR Value 10K
SYMBOL res 1456 -288 R90
WINDOW 0 0 56 VBottom 0
WINDOW 3 32 56 VTop 0
SYMATTR InstName R10
SYMATTR Value 5K
SYMBOL Opamps\\opamp2 1408 -176 R0
WINDOW 0 16 32 Left 0
WINDOW 3 16 96 Left 0
SYMATTR InstName U4
SYMATTR Value TL084
SYMBOL res 1280 96 R180
WINDOW 0 36 76 Left 0
WINDOW 3 36 40 Left 0
SYMATTR InstName R11
SYMATTR Value 10K
SYMBOL voltage 1328 32 R0
WINDOW 0 24 16 Left 0
WINDOW 3 24 96 Left 0
WINDOW 123 0 0 Left 0
WINDOW 39 0 0 Left 0
SYMATTR InstName V4
SYMATTR Value 3.3
SYMBOL res 1344 64 R180
WINDOW 0 36 76 Left 0
WINDOW 3 36 40 Left 0
SYMATTR InstName R13
SYMATTR Value 15K
SYMBOL res 1040 -592 R0
WINDOW 0 36 40 Left 0
WINDOW 3 36 76 Left 0
SYMATTR InstName R7
SYMATTR Value 5k
SYMBOL res 1040 -464 R0
WINDOW 0 36 40 Left 0
WINDOW 3 36 76 Left 0
SYMATTR InstName R9
SYMATTR Value 1k
SYMBOL res 1280 -704 R90
WINDOW 0 0 56 VBottom 0
WINDOW 3 32 56 VTop 0
SYMATTR InstName R12
SYMATTR Value 10K
SYMBOL res 1408 -848 R90
WINDOW 0 0 56 VBottom 0
WINDOW 3 32 56 VTop 0
SYMATTR InstName R14
SYMATTR Value 5K
SYMBOL Opamps\\opamp2 1360 -736 R0
WINDOW 0 16 32 Left 0
WINDOW 3 16 96 Left 0
SYMATTR InstName U6
SYMATTR Value TL084
SYMBOL res 1232 -464 R180
WINDOW 0 36 76 Left 0
WINDOW 3 36 40 Left 0
SYMATTR InstName R15
SYMATTR Value 10K
SYMBOL voltage 1280 -528 R0
WINDOW 0 24 16 Left 0
WINDOW 3 24 96 Left 0
WINDOW 123 0 0 Left 0
WINDOW 39 0 0 Left 0
SYMATTR InstName V5
SYMATTR Value 3.3
SYMBOL res 1296 -496 R180
WINDOW 0 36 76 Left 0
WINDOW 3 36 40 Left 0
SYMATTR InstName R16
SYMATTR Value 15K
SYMBOL Opamps\\opamp2 -176 -160 R0
WINDOW 0 16 32 Left 0
WINDOW 3 16 96 Left 0
SYMATTR InstName U7
SYMATTR Value TL084
SYMBOL diode -144 -80 R270
WINDOW 0 32 32 VTop 2
WINDOW 3 0 32 VBottom 2
SYMATTR InstName D1
SYMBOL res -176 16 R90
WINDOW 0 0 56 VBottom 0
WINDOW 3 32 56 VTop 0
SYMATTR InstName R17
SYMATTR Value 1k
SYMBOL res -48 16 R90
WINDOW 0 0 56 VBottom 0
WINDOW 3 32 56 VTop 0
SYMATTR InstName R18
SYMATTR Value 1k
SYMBOL Opamps\\opamp2 -160 144 R0
WINDOW 0 16 32 Left 0
WINDOW 3 16 96 Left 0
SYMATTR InstName U8
SYMATTR Value TL084
SYMBOL diode -128 224 R270
WINDOW 0 32 32 VTop 2
WINDOW 3 0 32 VBottom 2
SYMATTR InstName D2
SYMBOL res -80 224 R0
WINDOW 0 36 40 Left 0
WINDOW 3 36 76 Left 0
SYMATTR InstName r19
SYMATTR Value 1k
SYMBOL res 32 224 R0
WINDOW 0 36 40 Left 0
WINDOW 3 36 76 Left 0
SYMATTR InstName R20
SYMATTR Value 1000k
SYMBOL cap 144 240 R0
SYMATTR InstName C2
SYMATTR Value 10µ
SYMBOL Opamps\\opamp2 -96 -736 R0
WINDOW 0 16 32 Left 0
WINDOW 3 16 96 Left 0
SYMATTR InstName U9
SYMATTR Value TL084
SYMBOL diode -64 -656 R270
WINDOW 0 32 32 VTop 2
WINDOW 3 0 32 VBottom 2
SYMATTR InstName D3
SYMBOL res -96 -560 R90
WINDOW 0 0 56 VBottom 0
WINDOW 3 32 56 VTop 0
SYMATTR InstName R21
SYMATTR Value 1k
SYMBOL res 32 -560 R90
WINDOW 0 0 56 VBottom 0
WINDOW 3 32 56 VTop 0
SYMATTR InstName R22
SYMATTR Value 1k
SYMBOL Opamps\\opamp2 -80 -432 R0
WINDOW 0 16 32 Left 0
WINDOW 3 16 96 Left 0
SYMATTR InstName U10
SYMATTR Value TL084
SYMBOL diode -48 -352 R270
WINDOW 0 32 32 VTop 2
WINDOW 3 0 32 VBottom 2
SYMATTR InstName D4
SYMBOL res 0 -352 R0
WINDOW 0 36 40 Left 0
WINDOW 3 36 76 Left 0
SYMATTR InstName r23
SYMATTR Value 1k
SYMBOL res 112 -352 R0
WINDOW 0 36 40 Left 0
WINDOW 3 36 76 Left 0
SYMATTR InstName R24
SYMATTR Value 1000k
SYMBOL cap 224 -336 R0
SYMATTR InstName C3
SYMATTR Value 10µ
SYMBOL Digital\\dflop 1008 -944 R0
SYMATTR InstName A1
SYMBOL DigitalLogic\\AND_2 512 -1040 R0
SYMATTR InstName U11
SYMBOL DigitalLogic\\AND_2 512 -944 R0
SYMATTR InstName U12
SYMBOL DigitalLogic\\NOR_2 672 -1008 R0
SYMATTR InstName U13
SYMBOL DigitalLogic\\INV_1 336 -960 R0
SYMATTR InstName U14
SYMBOL voltage 848 -800 R0
WINDOW 0 24 16 Left 0
WINDOW 3 24 96 Left 0
WINDOW 123 0 0 Left 0
WINDOW 39 0 0 Left 0
SYMATTR InstName V6
SYMATTR Value PULSE(0 5 0.0001m 0.00015m 0.00015m 0.002M 0.006M)
SYMBOL voltage 1008 -800 R0
WINDOW 0 24 16 Left 0
WINDOW 3 24 96 Left 0
WINDOW 123 0 0 Left 0
WINDOW 39 0 0 Left 0
SYMATTR InstName V7
SYMATTR Value PULSE(0 5 0.001m 0 0 0.001m 0 1)
SYMBOL voltage 48 -1072 R0
WINDOW 0 24 16 Left 0
WINDOW 3 24 96 Left 0
WINDOW 123 0 0 Left 0
WINDOW 39 0 0 Left 0
SYMATTR InstName V8
SYMATTR Value 5
SYMBOL voltage -32 -1344 R0
WINDOW 0 24 16 Left 0
WINDOW 3 24 96 Left 0
WINDOW 123 0 0 Left 0
WINDOW 39 0 0 Left 0
SYMATTR InstName V9
SYMATTR Value 5
SYMBOL voltage -32 -1200 R0
WINDOW 0 24 16 Left 0
WINDOW 3 24 96 Left 0
WINDOW 123 0 0 Left 0
WINDOW 39 0 0 Left 0
SYMATTR InstName V10
SYMATTR Value PULSE(0 5 0.0001m 0.00015m 0.00015m 0.002M 0.006M)
SYMBOL DigitalLogic\\INV_1 192 -480 R0
SYMATTR InstName U23
SYMBOL voltage 496 -768 R0
WINDOW 0 24 16 Left 0
WINDOW 3 24 96 Left 0
WINDOW 123 0 0 Left 0
WINDOW 39 0 0 Left 0
SYMATTR InstName V11
SYMATTR Value PULSE(0 5 0.1m 0 0 1m)
SYMBOL DigitalLogic\\NAND_3 176 -784 R0
SYMATTR InstName U15
SYMBOL DigitalLogic\\NAND_3 176 -592 R0
SYMATTR InstName U16
SYMBOL DigitalLogic\\NAND_3 320 -784 R0
SYMATTR InstName U17
SYMBOL DigitalLogic\\NAND_3 320 -608 R0
SYMATTR InstName U18
SYMBOL DigitalLogic\\NAND_3 464 -784 R0
SYMATTR InstName U19
SYMBOL DigitalLogic\\NAND_3 464 -592 R0
SYMATTR InstName U20
SYMBOL DigitalLogic\\NAND_3 608 -800 R0
SYMATTR InstName U21
SYMBOL DigitalLogic\\NAND_3 640 -608 R0
SYMATTR InstName U22
TEXT 304 248 Left 2 !.tran 1m
TEXT 304 272 Left 2 !.include \\\\Mac\\Home\\Desktop\\sem6\\EDL\\ltspice_sim\\LM741.MOD
TEXT 296 296 Left 2 !;tran 1u
TEXT 456 -368 Left 0 ;inverting
RECTANGLE Normal 688 256 304 -368 2
