Version 4
SHEET 1 1400 892
WIRE 240 -304 176 -304
WIRE 336 -304 320 -304
WIRE 464 -304 384 -304
WIRE 576 -304 544 -304
WIRE 1152 -256 1120 -256
WIRE 288 -224 240 -224
WIRE 240 -192 240 -224
WIRE 1104 -128 1104 -176
WIRE 1104 -128 1088 -128
WIRE 1040 -112 1040 -256
WIRE 1040 -112 992 -112
WIRE 1056 -112 1040 -112
WIRE 336 -96 336 -304
WIRE 352 -96 336 -96
WIRE 384 -96 384 -304
WIRE 464 -96 384 -96
WIRE 912 -96 912 -112
WIRE 1120 -96 1104 -96
WIRE 1152 -96 1152 -256
WIRE 1152 -96 1120 -96
WIRE 240 -80 240 -112
WIRE 1008 -80 944 -80
WIRE 1056 -80 1008 -80
WIRE 288 -64 288 -224
WIRE 528 -48 528 -80
WIRE 528 -48 512 -48
WIRE 672 -48 640 -48
WIRE 288 -32 288 -64
WIRE 352 -32 352 -96
WIRE 384 -32 352 -32
WIRE 464 -32 464 -96
WIRE 480 -32 464 -32
WIRE 640 -32 640 -48
WIRE 736 -32 736 -80
WIRE 736 -32 720 -32
WIRE 1088 -32 1088 -64
WIRE 96 -16 16 -16
WIRE 176 -16 176 -304
WIRE 176 -16 160 -16
WIRE 256 -16 176 -16
WIRE 576 -16 576 -304
WIRE 576 -16 544 -16
WIRE 608 -16 576 -16
WIRE 672 -16 672 -48
WIRE 688 -16 672 -16
WIRE 1008 -16 1008 -80
WIRE 352 0 352 -32
WIRE 352 0 320 0
WIRE 480 0 432 0
WIRE 784 0 752 0
WIRE 256 16 224 16
WIRE 608 16 608 -16
WIRE 688 16 608 16
WIRE 944 16 944 -80
WIRE 176 32 176 -16
WIRE 512 48 512 16
WIRE 288 64 288 32
WIRE 720 64 720 32
WIRE 288 80 288 64
WIRE 176 96 64 96
WIRE 784 112 784 80
WIRE 944 112 944 96
WIRE 944 112 784 112
WIRE 16 128 16 -16
WIRE 784 128 784 112
WIRE 16 224 16 208
WIRE 224 224 224 16
WIRE 224 224 16 224
WIRE 288 224 288 160
WIRE 288 224 224 224
WIRE 432 224 432 0
WIRE 432 224 288 224
WIRE 784 224 784 208
WIRE 784 224 432 224
WIRE 1008 224 1008 144
WIRE 1008 224 784 224
WIRE 16 240 16 224
WIRE 688 368 656 368
WIRE 640 496 640 448
WIRE 640 496 624 496
WIRE 576 512 576 368
WIRE 576 512 528 512
WIRE 592 512 576 512
WIRE 448 528 448 512
WIRE 656 528 640 528
WIRE 688 528 688 368
WIRE 688 528 656 528
WIRE 544 544 480 544
WIRE 592 544 544 544
WIRE 176 576 144 576
WIRE 144 592 144 576
WIRE 240 592 240 560
WIRE 240 592 224 592
WIRE 624 592 624 560
WIRE 176 608 176 576
WIRE 192 608 176 608
WIRE 544 608 544 544
WIRE 288 624 256 624
WIRE 320 624 288 624
WIRE 192 640 128 640
WIRE 480 640 480 544
WIRE 224 688 224 656
WIRE 320 736 320 704
WIRE 480 736 480 720
WIRE 480 736 320 736
WIRE 320 752 320 736
WIRE 320 848 320 832
WIRE 544 848 544 768
WIRE 544 848 320 848
FLAG 16 240 0
FLAG 336 -304 out
FLAG 16 -16 in
FLAG 288 624 cs
FLAG 128 640 in
FLAG 784 0 co
FLAG 288 -64 +15
FLAG 528 -80 +15
FLAG 736 -80 +15
FLAG 240 560 +15
FLAG 288 64 -15
FLAG 224 688 -15
FLAG 784 112 ro
FLAG 1104 -176 +15
FLAG 1152 -96 oo
FLAG 320 736 rs
FLAG 640 448 +15
FLAG 688 528 ss
FLAG 432 224 G
FLAG 544 848 G
FLAG 1088 -32 -15
FLAG 624 592 -15
FLAG 512 48 -15
FLAG 720 64 -15
FLAG 640 -32 G
FLAG 912 -96 G
FLAG 144 592 G
FLAG 448 528 G
FLAG 240 -80 G
SYMBOL voltage 16 112 R0
WINDOW 0 24 16 Left 0
WINDOW 3 24 96 Left 0
WINDOW 123 0 0 Left 0
WINDOW 39 0 0 Left 0
SYMATTR InstName V1
SYMATTR Value SINE(0 2.5 50000)
SYMBOL res 192 -32 R90
WINDOW 0 0 56 VBottom 0
WINDOW 3 32 56 VTop 0
SYMATTR InstName R4
SYMATTR Value 10k
SYMBOL res 336 -320 R90
WINDOW 0 0 56 VBottom 0
WINDOW 3 32 56 VTop 0
SYMATTR InstName R1
SYMATTR Value 10K
SYMBOL voltage 288 64 R0
WINDOW 0 24 16 Left 0
WINDOW 3 24 96 Left 0
WINDOW 123 0 0 Left 0
WINDOW 39 0 0 Left 0
SYMATTR InstName V2
SYMATTR Value -15
SYMBOL voltage 240 -208 R0
WINDOW 0 24 16 Left 0
WINDOW 3 24 96 Left 0
WINDOW 123 0 0 Left 0
WINDOW 39 0 0 Left 0
SYMATTR InstName V3
SYMATTR Value 15
SYMBOL cap 160 32 R0
WINDOW 0 24 8 Left 0
WINDOW 3 24 56 Left 0
SYMATTR InstName C1
SYMATTR Value 10nF
SYMBOL res 480 -48 R90
WINDOW 0 0 56 VBottom 0
WINDOW 3 32 56 VTop 0
SYMATTR InstName R2
SYMATTR Value 10K
SYMBOL res 560 -320 R90
WINDOW 0 0 56 VBottom 0
WINDOW 3 32 56 VTop 0
SYMATTR InstName R5
SYMATTR Value 10K
SYMBOL res 768 -16 R0
WINDOW 0 36 40 Left 0
WINDOW 3 36 76 Left 0
SYMATTR InstName R3
SYMATTR Value 5k
SYMBOL res 768 112 R0
WINDOW 0 36 40 Left 0
WINDOW 3 36 76 Left 0
SYMATTR InstName R6
SYMATTR Value 1k
SYMBOL res 1008 -128 R90
WINDOW 0 0 56 VBottom 0
WINDOW 3 32 56 VTop 0
SYMATTR InstName R8
SYMATTR Value 10K
SYMBOL res 1136 -272 R90
WINDOW 0 0 56 VBottom 0
WINDOW 3 32 56 VTop 0
SYMATTR InstName R10
SYMATTR Value 5K
SYMBOL res 960 112 R180
WINDOW 0 36 76 Left 0
WINDOW 3 36 40 Left 0
SYMATTR InstName R11
SYMATTR Value 10K
SYMBOL voltage 1008 48 R0
WINDOW 0 24 16 Left 0
WINDOW 3 24 96 Left 0
WINDOW 123 0 0 Left 0
WINDOW 39 0 0 Left 0
SYMATTR InstName V4
SYMATTR Value 3.3
SYMBOL res 1024 80 R180
WINDOW 0 36 76 Left 0
WINDOW 3 36 40 Left 0
SYMATTR InstName R13
SYMATTR Value 15K
SYMBOL res 304 608 R0
WINDOW 0 36 40 Left 0
WINDOW 3 36 76 Left 0
SYMATTR InstName R7
SYMATTR Value 5k
SYMBOL res 304 736 R0
WINDOW 0 36 40 Left 0
WINDOW 3 36 76 Left 0
SYMATTR InstName R9
SYMATTR Value 1k
SYMBOL res 544 496 R90
WINDOW 0 0 56 VBottom 0
WINDOW 3 32 56 VTop 0
SYMATTR InstName R12
SYMATTR Value 10K
SYMBOL res 672 352 R90
WINDOW 0 0 56 VBottom 0
WINDOW 3 32 56 VTop 0
SYMATTR InstName R14
SYMATTR Value 5K
SYMBOL res 496 736 R180
WINDOW 0 36 76 Left 0
WINDOW 3 36 40 Left 0
SYMATTR InstName R15
SYMATTR Value 10K
SYMBOL voltage 544 672 R0
WINDOW 0 24 16 Left 0
WINDOW 3 24 96 Left 0
WINDOW 123 0 0 Left 0
WINDOW 39 0 0 Left 0
SYMATTR InstName V5
SYMATTR Value 3.3
SYMBOL res 560 704 R180
WINDOW 0 36 76 Left 0
WINDOW 3 36 40 Left 0
SYMATTR InstName R16
SYMATTR Value 15K
SYMBOL Digital\\dflop 1296 384 R0
SYMATTR InstName A1
SYMBOL Opamps\\LT1357 672 -272 R0
SYMATTR InstName U7
SYMBOL Opamps\\LT1357 288 -64 R0
SYMATTR InstName U1
SYMBOL Opamps\\LT1357 512 -80 R0
SYMATTR InstName U4
SYMBOL Opamps\\LT1357 720 -64 R0
SYMATTR InstName U10
SYMBOL Opamps\\LT1357 1088 -160 R0
SYMATTR InstName U18
SYMBOL Opamps\\LT1357 768 384 R0
SYMATTR InstName U41
SYMBOL Opamps\\LT1357 224 560 R0
SYMATTR InstName U3
SYMBOL Opamps\\LT1357 624 464 R0
SYMATTR InstName U5
TEXT -16 264 Left 2 !.tran 1m
TEXT -16 288 Left 2 !.include \\\\Mac\\Home\\Desktop\\sem6\\EDL\\ltspice_sim\\LM741.MOD
TEXT -24 312 Left 2 !;tran 1u
TEXT 456 -368 Left 0 ;inverting
RECTANGLE Normal 368 272 -16 -352 2
