Version 4
SHEET 1 2856 1484
WIRE 1728 -1248 1552 -1248
WIRE 1248 -1232 1072 -1232
WIRE 2640 -1200 2608 -1200
WIRE -160 -1184 -256 -1184
WIRE -16 -1184 -160 -1184
WIRE 2320 -1184 2128 -1184
WIRE 464 -1136 416 -1136
WIRE -64 -1088 -64 -1120
WIRE -64 -1088 -80 -1088
WIRE 2064 -1088 2000 -1088
WIRE -160 -1072 -160 -1184
WIRE -112 -1072 -160 -1072
WIRE 80 -1072 80 -1104
WIRE 80 -1072 64 -1072
WIRE 1552 -1072 1552 -1248
WIRE 1568 -1072 1552 -1072
WIRE 1728 -1072 1728 -1168
WIRE 1728 -1072 1664 -1072
WIRE 2224 -1072 2224 -1104
WIRE 2224 -1072 2208 -1072
WIRE 2592 -1072 2592 -1120
WIRE 2592 -1072 2576 -1072
WIRE -32 -1056 -48 -1056
WIRE -16 -1056 -16 -1184
WIRE 32 -1056 -16 -1056
WIRE 1072 -1056 1072 -1232
WIRE 1088 -1056 1072 -1056
WIRE 1248 -1056 1248 -1152
WIRE 1248 -1056 1184 -1056
WIRE 1552 -1056 1552 -1072
WIRE 1664 -1056 1664 -1072
WIRE 1728 -1056 1728 -1072
WIRE 2128 -1056 2128 -1184
WIRE 2176 -1056 2128 -1056
WIRE 2528 -1056 2528 -1200
WIRE 2528 -1056 2480 -1056
WIRE 2544 -1056 2528 -1056
WIRE -112 -1040 -160 -1040
WIRE 144 -1040 96 -1040
WIRE 1072 -1040 1072 -1056
WIRE 1184 -1040 1184 -1056
WIRE 1248 -1040 1248 -1056
WIRE 2320 -1040 2320 -1184
WIRE 2320 -1040 2240 -1040
WIRE 2400 -1040 2400 -1056
WIRE 2608 -1040 2592 -1040
WIRE 2640 -1040 2640 -1200
WIRE 2640 -1040 2608 -1040
WIRE 32 -1024 -16 -1024
WIRE 2064 -1024 2064 -1088
WIRE 2176 -1024 2064 -1024
WIRE 2496 -1024 2432 -1024
WIRE 2544 -1024 2496 -1024
WIRE -160 -1008 -160 -1040
WIRE -80 -992 -80 -1024
WIRE -16 -992 -16 -1024
WIRE 464 -992 464 -1136
WIRE 2576 -992 2576 -1008
WIRE 64 -976 64 -1008
WIRE 2208 -976 2208 -1008
WIRE 2576 -976 2576 -992
WIRE 1552 -960 1552 -976
WIRE 1664 -960 1664 -992
WIRE 1664 -960 1552 -960
WIRE 1712 -960 1664 -960
WIRE 2496 -960 2496 -1024
WIRE 1072 -944 1072 -960
WIRE 1184 -944 1184 -976
WIRE 1184 -944 1072 -944
WIRE 1232 -944 1184 -944
WIRE 2000 -944 2000 -1088
WIRE 432 -928 192 -928
WIRE 528 -928 432 -928
WIRE 2432 -928 2432 -1024
WIRE 2800 -928 2720 -928
WIRE 192 -912 192 -928
WIRE 192 -912 128 -912
WIRE 640 -912 640 -992
WIRE 528 -864 528 -928
WIRE 560 -864 528 -864
WIRE 768 -864 720 -864
WIRE 128 -848 128 -912
WIRE 144 -848 128 -848
WIRE 368 -848 304 -848
WIRE 2000 -848 2000 -864
WIRE 2256 -848 2000 -848
WIRE 1424 -832 1392 -832
WIRE 2000 -832 2000 -848
WIRE 560 -816 512 -816
WIRE 2496 -816 2496 -880
WIRE 2720 -816 2720 -848
WIRE 2720 -816 2496 -816
WIRE 0 -800 -176 -800
WIRE 144 -800 64 -800
WIRE 1824 -800 1648 -800
WIRE 2720 -800 2720 -816
WIRE 2320 -784 2320 -1040
WIRE 2432 -784 2432 -848
WIRE 2432 -784 2320 -784
WIRE -80 -704 -80 -736
WIRE -80 -704 -96 -704
WIRE 1376 -704 1376 -752
WIRE 1376 -704 1360 -704
WIRE 1744 -704 1744 -736
WIRE 1744 -704 1728 -704
WIRE -176 -688 -176 -800
WIRE -128 -688 -176 -688
WIRE 1312 -688 1312 -832
WIRE 1312 -688 1264 -688
WIRE 1328 -688 1312 -688
WIRE 1648 -688 1648 -800
WIRE 1696 -688 1648 -688
WIRE 0 -672 0 -800
WIRE 400 -672 368 -672
WIRE 1184 -672 1184 -688
WIRE 1392 -672 1376 -672
WIRE 1424 -672 1424 -832
WIRE 1424 -672 1392 -672
WIRE 1824 -672 1824 -800
WIRE -176 -656 -192 -656
WIRE -128 -656 -176 -656
WIRE 400 -656 400 -672
WIRE 416 -656 400 -656
WIRE 1280 -656 1216 -656
WIRE 1328 -656 1280 -656
WIRE 1648 -656 1632 -656
WIRE 1696 -656 1648 -656
WIRE 528 -640 480 -640
WIRE 640 -640 640 -768
WIRE 640 -640 528 -640
WIRE 2256 -640 2256 -848
WIRE 2720 -640 2720 -720
WIRE 2720 -640 2256 -640
WIRE 2736 -640 2720 -640
WIRE 416 -624 368 -624
WIRE 912 -624 880 -624
WIRE 1360 -624 1360 -640
WIRE -176 -608 -176 -656
WIRE -176 -608 -224 -608
WIRE -96 -608 -96 -640
WIRE 880 -608 880 -624
WIRE 976 -608 976 -640
WIRE 976 -608 960 -608
WIRE 1360 -608 1360 -624
WIRE 1648 -608 1648 -656
WIRE 1648 -608 1600 -608
WIRE 1728 -608 1728 -640
WIRE 912 -592 912 -624
WIRE 928 -592 912 -592
WIRE 1280 -592 1280 -656
WIRE 0 -576 0 -672
WIRE 16 -576 0 -576
WIRE 224 -576 224 -752
WIRE 528 -576 528 -640
WIRE 528 -576 224 -576
WIRE 1024 -576 992 -576
WIRE 1056 -576 1024 -576
WIRE 1824 -576 1824 -672
WIRE 1840 -576 1824 -576
WIRE 928 -560 864 -560
WIRE 1216 -560 1216 -656
WIRE -224 -544 -224 -608
WIRE -192 -544 -224 -544
WIRE -96 -544 -112 -544
WIRE -64 -544 -96 -544
WIRE 16 -544 16 -576
WIRE 768 -544 368 -544
WIRE 1600 -544 1600 -608
WIRE 1632 -544 1600 -544
WIRE 1728 -544 1712 -544
WIRE 1760 -544 1728 -544
WIRE 1840 -544 1840 -576
WIRE 960 -512 960 -544
WIRE 1056 -464 1056 -496
WIRE 1216 -464 1216 -480
WIRE 1216 -464 1056 -464
WIRE 1056 -448 1056 -464
WIRE -96 -432 -96 -544
WIRE -96 -432 -144 -432
WIRE 1728 -432 1728 -544
WIRE 1728 -432 1680 -432
WIRE -64 -400 -64 -432
WIRE -64 -400 -80 -400
WIRE 1760 -400 1760 -432
WIRE 1760 -400 1744 -400
WIRE -144 -384 -144 -432
WIRE -112 -384 -144 -384
WIRE 1680 -384 1680 -432
WIRE 1712 -384 1680 -384
WIRE 16 -368 16 -544
WIRE 128 -368 16 -368
WIRE 1840 -368 1840 -544
WIRE 1952 -368 1840 -368
WIRE -112 -352 -144 -352
WIRE 128 -352 128 -368
WIRE 240 -352 128 -352
WIRE 1056 -352 1056 -368
WIRE 1280 -352 1280 -432
WIRE 1280 -352 1056 -352
WIRE 1712 -352 1680 -352
WIRE 1952 -352 1952 -368
WIRE 2064 -352 1952 -352
WIRE 16 -336 16 -368
WIRE 128 -336 128 -352
WIRE 240 -336 240 -352
WIRE 1840 -336 1840 -368
WIRE 1952 -336 1952 -352
WIRE 2064 -336 2064 -352
WIRE 560 -320 496 -320
WIRE 656 -320 640 -320
WIRE 784 -320 704 -320
WIRE 896 -320 864 -320
WIRE -80 -304 -80 -336
WIRE 1744 -304 1744 -336
WIRE 1472 -272 1440 -272
WIRE 16 -240 16 -256
WIRE 128 -240 128 -256
WIRE 128 -240 16 -240
WIRE 240 -240 240 -272
WIRE 240 -240 128 -240
WIRE 608 -240 560 -240
WIRE 1840 -240 1840 -256
WIRE 1952 -240 1952 -256
WIRE 1952 -240 1840 -240
WIRE 2064 -240 2064 -272
WIRE 2064 -240 1952 -240
WIRE -80 -224 -256 -224
WIRE 560 -208 560 -240
WIRE 1792 -208 1616 -208
WIRE 704 -176 704 -320
WIRE 704 -176 688 -176
WIRE 784 -176 704 -176
WIRE 1424 -144 1424 -192
WIRE 1424 -144 1408 -144
WIRE -160 -128 -160 -160
WIRE -160 -128 -176 -128
WIRE 1360 -128 1360 -272
WIRE 1360 -128 1312 -128
WIRE 1376 -128 1360 -128
WIRE -256 -112 -256 -224
WIRE -208 -112 -256 -112
WIRE 656 -112 656 -320
WIRE 672 -112 656 -112
WIRE 1232 -112 1232 -128
WIRE 1440 -112 1424 -112
WIRE 1472 -112 1472 -272
WIRE 1472 -112 1440 -112
WIRE 1712 -112 1712 -144
WIRE 1712 -112 1696 -112
WIRE -80 -96 -80 -224
WIRE 560 -96 560 -128
WIRE 1328 -96 1264 -96
WIRE 1376 -96 1328 -96
WIRE 1616 -96 1616 -208
WIRE 1664 -96 1616 -96
WIRE -256 -80 -272 -80
WIRE -208 -80 -256 -80
WIRE 608 -80 608 -240
WIRE 1792 -80 1792 -208
WIRE 848 -64 848 -96
WIRE 848 -64 832 -64
WIRE 992 -64 960 -64
WIRE 1408 -64 1408 -80
WIRE 1616 -64 1600 -64
WIRE 1664 -64 1616 -64
WIRE 608 -48 608 -80
WIRE 672 -48 672 -112
WIRE 704 -48 672 -48
WIRE 784 -48 784 -176
WIRE 800 -48 784 -48
WIRE 960 -48 960 -64
WIRE 1056 -48 1056 -96
WIRE 1056 -48 1040 -48
WIRE 1408 -48 1408 -64
WIRE -256 -32 -256 -80
WIRE -256 -32 -304 -32
WIRE -176 -32 -176 -64
WIRE 384 -32 336 -32
WIRE 416 -32 384 -32
WIRE 496 -32 496 -320
WIRE 496 -32 480 -32
WIRE 576 -32 496 -32
WIRE 896 -32 896 -320
WIRE 896 -32 864 -32
WIRE 928 -32 896 -32
WIRE 992 -32 992 -64
WIRE 1008 -32 992 -32
WIRE 1328 -32 1328 -96
WIRE 672 -16 672 -48
WIRE 672 -16 640 -16
WIRE 800 -16 752 -16
WIRE 1104 -16 1072 -16
WIRE 1616 -16 1616 -64
WIRE 1616 -16 1568 -16
WIRE 1696 -16 1696 -48
WIRE -80 0 -80 -96
WIRE -64 0 -80 0
WIRE 576 0 544 0
WIRE 928 0 928 -32
WIRE 1008 0 928 0
WIRE 1264 0 1264 -96
WIRE 496 16 496 -32
WIRE 832 16 832 0
WIRE 1792 16 1792 -80
WIRE 1808 16 1792 16
WIRE -304 32 -304 -32
WIRE -272 32 -304 32
WIRE -176 32 -192 32
WIRE -144 32 -176 32
WIRE -64 32 -64 0
WIRE 832 32 832 16
WIRE 1040 32 1040 16
WIRE 608 48 608 16
WIRE 1040 48 1040 32
WIRE 1568 48 1568 -16
WIRE 1600 48 1568 48
WIRE 1696 48 1680 48
WIRE 1728 48 1696 48
WIRE 1808 48 1808 16
WIRE 608 64 608 48
WIRE 384 80 384 -32
WIRE 496 80 384 80
WIRE 1104 96 1104 64
WIRE 1264 96 1264 80
WIRE 1264 96 1104 96
WIRE 336 112 336 -32
WIRE 1104 112 1104 96
WIRE -176 144 -176 32
WIRE -176 144 -224 144
WIRE 1696 160 1696 48
WIRE 1696 160 1648 160
WIRE -144 176 -144 144
WIRE -144 176 -160 176
WIRE -224 192 -224 144
WIRE -192 192 -224 192
WIRE 1728 192 1728 160
WIRE 1728 192 1712 192
WIRE -64 208 -64 32
WIRE 48 208 -64 208
WIRE 336 208 336 192
WIRE 544 208 544 0
WIRE 544 208 336 208
WIRE 608 208 608 144
WIRE 608 208 544 208
WIRE 752 208 752 -16
WIRE 752 208 608 208
WIRE 1104 208 1104 192
WIRE 1104 208 752 208
WIRE 1328 208 1328 128
WIRE 1328 208 1104 208
WIRE 1648 208 1648 160
WIRE 1680 208 1648 208
WIRE -192 224 -224 224
WIRE 48 224 48 208
WIRE 160 224 48 224
WIRE 336 224 336 208
WIRE 1808 224 1808 48
WIRE 1920 224 1808 224
WIRE -64 240 -64 208
WIRE 48 240 48 224
WIRE 160 240 160 224
WIRE 1680 240 1648 240
WIRE 1920 240 1920 224
WIRE 2032 240 1920 240
WIRE 1808 256 1808 224
WIRE 1920 256 1920 240
WIRE 2032 256 2032 240
WIRE -160 272 -160 240
WIRE 1712 288 1712 256
WIRE -64 336 -64 320
WIRE 48 336 48 320
WIRE 48 336 -64 336
WIRE 160 336 160 304
WIRE 160 336 48 336
WIRE 1808 352 1808 336
WIRE 1920 352 1920 336
WIRE 1920 352 1808 352
WIRE 2032 352 2032 320
WIRE 2032 352 1920 352
FLAG 336 224 0
FLAG 656 -320 out
FLAG 336 -32 in
FLAG 560 -96 0
FLAG 880 -608 0
FLAG 1024 -576 cs
FLAG 864 -560 in
FLAG 960 -48 0
FLAG 1104 -16 co
FLAG 608 -80 +15
FLAG 848 -96 +15
FLAG 1056 -96 +15
FLAG 976 -640 +15
FLAG 608 48 -15
FLAG 832 16 -15
FLAG 1040 32 -15
FLAG 960 -512 -15
FLAG 1104 96 ro
FLAG 1232 -112 0
FLAG 1424 -192 +15
FLAG 1408 -64 -15
FLAG 1472 -112 oo
FLAG 1056 -464 rs
FLAG 1184 -672 0
FLAG 1376 -752 +15
FLAG 1360 -624 -15
FLAG 1424 -672 ss
FLAG 752 208 G
FLAG 1280 -352 G
FLAG -272 -80 in
FLAG -160 -160 +15
FLAG -176 -32 -15
FLAG -144 144 +15
FLAG -160 272 -15
FLAG -224 224 G
FLAG 48 336 G
FLAG -192 -656 out
FLAG -80 -736 +15
FLAG -96 -608 -15
FLAG -64 -432 +15
FLAG -80 -304 -15
FLAG -144 -352 G
FLAG 128 -240 G
FLAG 64 -800 ss
FLAG 512 -816 oo
FLAG 416 -1056 G
FLAG 224 -896 G
FLAG 640 -992 G
FLAG 80 -1104 +15
FLAG 64 -976 -15
FLAG -64 -1120 +15
FLAG -80 -992 -15
FLAG 432 -848 G
FLAG -256 -1104 G
FLAG 368 -848 M1
FLAG -160 -1008 M1
FLAG 368 -672 MO1
FLAG 768 -864 M2
FLAG -16 -992 M2
FLAG 368 -624 MO2
FLAG 144 -1040 MO2
FLAG -32 -1056 MO1
FLAG 1072 -1056 M2
FLAG 1072 -960 G
FLAG 1552 -1072 M1
FLAG 1552 -976 G
FLAG 1744 -736 +15
FLAG 1728 -608 -15
FLAG 1760 -432 +15
FLAG 1744 -304 -15
FLAG 1680 -352 G
FLAG 1952 -240 G
FLAG 1712 -144 +15
FLAG 1696 -16 -15
FLAG 1728 160 +15
FLAG 1712 288 -15
FLAG 1648 240 G
FLAG 1920 352 G
FLAG 1632 -656 M1
FLAG 1600 -64 M2
FLAG 2000 -832 0
FLAG 2224 -1104 +15
FLAG 2208 -976 -15
FLAG 2400 -1040 0
FLAG 2592 -1120 +15
FLAG 2576 -992 -15
FLAG 2800 -928 -15
SYMBOL voltage 336 96 R0
WINDOW 0 24 16 Left 0
WINDOW 3 24 96 Left 0
WINDOW 123 0 0 Left 0
WINDOW 39 0 0 Left 0
SYMATTR InstName V1
SYMATTR Value SINE(0 2.5 10000)
SYMBOL res 512 -48 R90
WINDOW 0 0 56 VBottom 0
WINDOW 3 32 56 VTop 0
SYMATTR InstName R4
SYMATTR Value 10k
SYMBOL res 656 -336 R90
WINDOW 0 0 56 VBottom 0
WINDOW 3 32 56 VTop 0
SYMATTR InstName R1
SYMATTR Value 10K
SYMBOL voltage 608 48 R0
WINDOW 0 24 16 Left 0
WINDOW 3 24 96 Left 0
WINDOW 123 0 0 Left 0
WINDOW 39 0 0 Left 0
SYMATTR InstName V2
SYMATTR Value -15
SYMBOL voltage 560 -224 R0
WINDOW 0 24 16 Left 0
WINDOW 3 24 96 Left 0
WINDOW 123 0 0 Left 0
WINDOW 39 0 0 Left 0
SYMATTR InstName V3
SYMATTR Value 15
SYMBOL cap 480 16 R0
WINDOW 0 24 8 Left 0
WINDOW 3 24 56 Left 0
SYMATTR InstName C1
SYMATTR Value 10nF
SYMBOL Opamps\\opamp2 608 -80 R0
WINDOW 0 16 32 Left 0
WINDOW 3 16 96 Left 0
SYMATTR InstName U1
SYMATTR Value LM318
SYMBOL Opamps\\opamp2 1040 -80 R0
WINDOW 0 16 32 Left 0
WINDOW 3 16 96 Left 0
SYMATTR InstName U2
SYMATTR Value LM318
SYMBOL Opamps\\opamp2 960 -640 R0
WINDOW 0 16 32 Left 0
WINDOW 3 16 96 Left 0
SYMATTR InstName U3
SYMATTR Value LM318
SYMBOL Opamps\\opamp2 832 -96 R0
WINDOW 0 16 32 Left 0
WINDOW 3 16 96 Left 0
SYMATTR InstName U5
SYMATTR Value LM318
SYMBOL res 800 -64 R90
WINDOW 0 0 56 VBottom 0
WINDOW 3 32 56 VTop 0
SYMATTR InstName R2
SYMATTR Value 10K
SYMBOL res 880 -336 R90
WINDOW 0 0 56 VBottom 0
WINDOW 3 32 56 VTop 0
SYMATTR InstName R5
SYMATTR Value 10K
SYMBOL res 1088 -32 R0
WINDOW 0 36 40 Left 0
WINDOW 3 36 76 Left 0
SYMATTR InstName R3
SYMATTR Value 5k
SYMBOL res 1088 96 R0
WINDOW 0 36 40 Left 0
WINDOW 3 36 76 Left 0
SYMATTR InstName R6
SYMATTR Value 1k
SYMBOL res 1328 -144 R90
WINDOW 0 0 56 VBottom 0
WINDOW 3 32 56 VTop 0
SYMATTR InstName R8
SYMATTR Value 10K
SYMBOL res 1456 -288 R90
WINDOW 0 0 56 VBottom 0
WINDOW 3 32 56 VTop 0
SYMATTR InstName R10
SYMATTR Value 5K
SYMBOL Opamps\\opamp2 1408 -176 R0
WINDOW 0 16 32 Left 0
WINDOW 3 16 96 Left 0
SYMATTR InstName U4
SYMATTR Value LM318
SYMBOL res 1280 96 R180
WINDOW 0 36 76 Left 0
WINDOW 3 36 40 Left 0
SYMATTR InstName R11
SYMATTR Value 10K
SYMBOL voltage 1328 32 R0
WINDOW 0 24 16 Left 0
WINDOW 3 24 96 Left 0
WINDOW 123 0 0 Left 0
WINDOW 39 0 0 Left 0
SYMATTR InstName V4
SYMATTR Value 3.3
SYMBOL res 1344 64 R180
WINDOW 0 36 76 Left 0
WINDOW 3 36 40 Left 0
SYMATTR InstName R13
SYMATTR Value 15K
SYMBOL res 1040 -592 R0
WINDOW 0 36 40 Left 0
WINDOW 3 36 76 Left 0
SYMATTR InstName R7
SYMATTR Value 5k
SYMBOL res 1040 -464 R0
WINDOW 0 36 40 Left 0
WINDOW 3 36 76 Left 0
SYMATTR InstName R9
SYMATTR Value 1k
SYMBOL res 1280 -704 R90
WINDOW 0 0 56 VBottom 0
WINDOW 3 32 56 VTop 0
SYMATTR InstName R12
SYMATTR Value 10K
SYMBOL res 1408 -848 R90
WINDOW 0 0 56 VBottom 0
WINDOW 3 32 56 VTop 0
SYMATTR InstName R14
SYMATTR Value 5K
SYMBOL Opamps\\opamp2 1360 -736 R0
WINDOW 0 16 32 Left 0
WINDOW 3 16 96 Left 0
SYMATTR InstName U6
SYMATTR Value LM318
SYMBOL res 1232 -464 R180
WINDOW 0 36 76 Left 0
WINDOW 3 36 40 Left 0
SYMATTR InstName R15
SYMATTR Value 10K
SYMBOL voltage 1280 -528 R0
WINDOW 0 24 16 Left 0
WINDOW 3 24 96 Left 0
WINDOW 123 0 0 Left 0
WINDOW 39 0 0 Left 0
SYMATTR InstName V5
SYMATTR Value 3.3
SYMBOL res 1296 -496 R180
WINDOW 0 36 76 Left 0
WINDOW 3 36 40 Left 0
SYMATTR InstName R16
SYMATTR Value 15K
SYMBOL Opamps\\opamp2 -176 -160 R0
WINDOW 0 16 32 Left 0
WINDOW 3 16 96 Left 0
SYMATTR InstName U7
SYMATTR Value LM318
SYMBOL diode -144 -80 R270
WINDOW 0 32 32 VTop 2
WINDOW 3 0 32 VBottom 2
SYMATTR InstName D1
SYMBOL res -176 16 R90
WINDOW 0 0 56 VBottom 0
WINDOW 3 32 56 VTop 0
SYMATTR InstName R17
SYMATTR Value 1k
SYMBOL res -48 16 R90
WINDOW 0 0 56 VBottom 0
WINDOW 3 32 56 VTop 0
SYMATTR InstName R18
SYMATTR Value 1k
SYMBOL Opamps\\opamp2 -160 144 R0
WINDOW 0 16 32 Left 0
WINDOW 3 16 96 Left 0
SYMATTR InstName U8
SYMATTR Value LM318
SYMBOL diode -128 224 R270
WINDOW 0 32 32 VTop 2
WINDOW 3 0 32 VBottom 2
SYMATTR InstName D2
SYMBOL res -80 224 R0
WINDOW 0 36 40 Left 0
WINDOW 3 36 76 Left 0
SYMATTR InstName r19
SYMATTR Value 1k
SYMBOL res 32 224 R0
WINDOW 0 36 40 Left 0
WINDOW 3 36 76 Left 0
SYMATTR InstName R20
SYMATTR Value 1000k
SYMBOL cap 144 240 R0
SYMATTR InstName C2
SYMATTR Value 10µ
SYMBOL Opamps\\opamp2 -96 -736 R0
WINDOW 0 16 32 Left 0
WINDOW 3 16 96 Left 0
SYMATTR InstName U9
SYMATTR Value LM318
SYMBOL diode -64 -656 R270
WINDOW 0 32 32 VTop 2
WINDOW 3 0 32 VBottom 2
SYMATTR InstName D3
SYMBOL res -96 -560 R90
WINDOW 0 0 56 VBottom 0
WINDOW 3 32 56 VTop 0
SYMATTR InstName R21
SYMATTR Value 1k
SYMBOL res 32 -560 R90
WINDOW 0 0 56 VBottom 0
WINDOW 3 32 56 VTop 0
SYMATTR InstName R22
SYMATTR Value 1k
SYMBOL Opamps\\opamp2 -80 -432 R0
WINDOW 0 16 32 Left 0
WINDOW 3 16 96 Left 0
SYMATTR InstName U10
SYMATTR Value LM318
SYMBOL diode -48 -352 R270
WINDOW 0 32 32 VTop 2
WINDOW 3 0 32 VBottom 2
SYMATTR InstName D4
SYMBOL res 0 -352 R0
WINDOW 0 36 40 Left 0
WINDOW 3 36 76 Left 0
SYMATTR InstName r23
SYMATTR Value 1k
SYMBOL res 112 -352 R0
WINDOW 0 36 40 Left 0
WINDOW 3 36 76 Left 0
SYMATTR InstName R24
SYMATTR Value 1000k
SYMBOL cap 224 -336 R0
SYMATTR InstName C3
SYMATTR Value 10µ
SYMBOL Digital\\dflop 224 -896 R0
SYMATTR InstName A1
SYMBOL Digital\\dflop 640 -912 R0
SYMATTR InstName A2
SYMBOL DigitalLogic\\AND_2 448 -640 R0
SYMATTR InstName U11
SYMBOL voltage 432 -944 R0
WINDOW 0 24 16 Left 0
WINDOW 3 24 96 Left 0
WINDOW 123 0 0 Left 0
WINDOW 39 0 0 Left 0
SYMATTR InstName V7
SYMATTR Value 5
SYMBOL voltage 416 -1152 R0
WINDOW 0 24 16 Left 0
WINDOW 3 24 96 Left 0
WINDOW 123 0 0 Left 0
WINDOW 39 0 0 Left 0
SYMATTR InstName V6
SYMATTR Value PULSE(0 5 0 0 0 0.001m 0 1)
SYMBOL Opamps\\opamp2 64 -1104 R0
WINDOW 0 16 32 Left 0
WINDOW 3 16 96 Left 0
SYMATTR InstName U12
SYMATTR Value LM318
SYMBOL Opamps\\opamp2 -80 -1120 R0
WINDOW 0 16 32 Left 0
WINDOW 3 16 96 Left 0
SYMATTR InstName U14
SYMATTR Value LM318
SYMBOL voltage -256 -1200 R0
WINDOW 0 24 16 Left 0
WINDOW 3 24 96 Left 0
WINDOW 123 0 0 Left 0
WINDOW 39 0 0 Left 0
SYMATTR InstName V9
SYMATTR Value 0.5
SYMBOL cap 1168 -1040 R0
SYMATTR InstName C4
SYMATTR Value 47n
SYMBOL res 1232 -1248 R0
WINDOW 0 36 40 Left 0
WINDOW 3 36 76 Left 0
SYMATTR InstName R26
SYMATTR Value 4.7k
SYMBOL cap 1648 -1056 R0
SYMATTR InstName C5
SYMATTR Value 47n
SYMBOL res 1712 -1264 R0
WINDOW 0 36 40 Left 0
WINDOW 3 36 76 Left 0
SYMATTR InstName R25
SYMATTR Value 4.7k
SYMBOL Opamps\\opamp2 1728 -736 R0
WINDOW 0 16 32 Left 0
WINDOW 3 16 96 Left 0
SYMATTR InstName U13
SYMATTR Value LM318
SYMBOL diode 1760 -656 R270
WINDOW 0 32 32 VTop 2
WINDOW 3 0 32 VBottom 2
SYMATTR InstName D5
SYMBOL res 1728 -560 R90
WINDOW 0 0 56 VBottom 0
WINDOW 3 32 56 VTop 0
SYMATTR InstName R27
SYMATTR Value 1k
SYMBOL res 1856 -560 R90
WINDOW 0 0 56 VBottom 0
WINDOW 3 32 56 VTop 0
SYMATTR InstName R28
SYMATTR Value 1k
SYMBOL Opamps\\opamp2 1744 -432 R0
WINDOW 0 16 32 Left 0
WINDOW 3 16 96 Left 0
SYMATTR InstName U15
SYMATTR Value LM318
SYMBOL diode 1776 -352 R270
WINDOW 0 32 32 VTop 2
WINDOW 3 0 32 VBottom 2
SYMATTR InstName D6
SYMBOL res 1824 -352 R0
WINDOW 0 36 40 Left 0
WINDOW 3 36 76 Left 0
SYMATTR InstName r29
SYMATTR Value 1k
SYMBOL res 1936 -352 R0
WINDOW 0 36 40 Left 0
WINDOW 3 36 76 Left 0
SYMATTR InstName R30
SYMATTR Value 1000k
SYMBOL cap 2048 -336 R0
SYMATTR InstName C6
SYMATTR Value 10µ
SYMBOL Opamps\\opamp2 1696 -144 R0
WINDOW 0 16 32 Left 0
WINDOW 3 16 96 Left 0
SYMATTR InstName U16
SYMATTR Value LM318
SYMBOL diode 1728 -64 R270
WINDOW 0 32 32 VTop 2
WINDOW 3 0 32 VBottom 2
SYMATTR InstName D7
SYMBOL res 1696 32 R90
WINDOW 0 0 56 VBottom 0
WINDOW 3 32 56 VTop 0
SYMATTR InstName R31
SYMATTR Value 1k
SYMBOL res 1824 32 R90
WINDOW 0 0 56 VBottom 0
WINDOW 3 32 56 VTop 0
SYMATTR InstName R32
SYMATTR Value 1k
SYMBOL Opamps\\opamp2 1712 160 R0
WINDOW 0 16 32 Left 0
WINDOW 3 16 96 Left 0
SYMATTR InstName U17
SYMATTR Value LM318
SYMBOL diode 1744 240 R270
WINDOW 0 32 32 VTop 2
WINDOW 3 0 32 VBottom 2
SYMATTR InstName D8
SYMBOL res 1792 240 R0
WINDOW 0 36 40 Left 0
WINDOW 3 36 76 Left 0
SYMATTR InstName r33
SYMATTR Value 1k
SYMBOL res 1904 240 R0
WINDOW 0 36 40 Left 0
WINDOW 3 36 76 Left 0
SYMATTR InstName R34
SYMATTR Value 1000k
SYMBOL cap 2016 256 R0
SYMATTR InstName C7
SYMATTR Value 10µ
SYMBOL voltage 2000 -960 R0
WINDOW 0 24 16 Left 0
WINDOW 3 24 96 Left 0
WINDOW 123 0 0 Left 0
WINDOW 39 0 0 Left 0
SYMATTR InstName V8
SYMATTR Value SINE(1.65 1.65 10000)
SYMBOL Opamps\\opamp2 2208 -1104 R0
WINDOW 0 16 32 Left 0
WINDOW 3 16 96 Left 0
SYMATTR InstName U18
SYMATTR Value LM318
SYMBOL res 2496 -1072 R90
WINDOW 0 0 56 VBottom 0
WINDOW 3 32 56 VTop 0
SYMATTR InstName R35
SYMATTR Value 5K
SYMBOL res 2624 -1216 R90
WINDOW 0 0 56 VBottom 0
WINDOW 3 32 56 VTop 0
SYMATTR InstName R36
SYMATTR Value 10K
SYMBOL Opamps\\opamp2 2576 -1104 R0
WINDOW 0 16 32 Left 0
WINDOW 3 16 96 Left 0
SYMATTR InstName U19
SYMATTR Value LM318
SYMBOL res 2448 -832 R180
WINDOW 0 36 76 Left 0
WINDOW 3 36 40 Left 0
SYMATTR InstName R37
SYMATTR Value 10K
SYMBOL res 2512 -864 R180
WINDOW 0 36 76 Left 0
WINDOW 3 36 40 Left 0
SYMATTR InstName R38
SYMATTR Value 10K
SYMBOL res 2736 -832 R180
WINDOW 0 36 76 Left 0
WINDOW 3 36 40 Left 0
SYMATTR InstName R39
SYMATTR Value 10K
SYMBOL res 2736 -704 R180
WINDOW 0 36 76 Left 0
WINDOW 3 36 40 Left 0
SYMATTR InstName R40
SYMATTR Value 1.2K
TEXT 304 248 Left 2 !.tran 10m
TEXT 304 272 Left 2 !.lib \\\\Mac\\Home\\Desktop\\sem6\\EDL\\LM318.MOD
TEXT 296 296 Left 2 !;tran 1u
TEXT 456 -368 Left 0 ;inverting
RECTANGLE Normal 688 256 304 -368 2
